Circuit: * C:\Users\mark_\OneDrive\Documents\Projects\LTspice\PWM-CM3\BuckBoost_negOutput.ASC

C1: both pins shorted together -- ignoring.
C2: both pins shorted together -- ignoring.
WARNING: Less than two connections to node X1:Q_BAR.  This node is used by A:X1:1.
WARNING: Less than two connections to node X1:ON_TIME.  This node is used by B:X1:7.
WARNING: Less than two connections to node X4:X1:DELTA_I_DEMAG.  This node is used by B:X4:X1:23.
WARNING: Less than two connections to node X4:X1:I_MIN_DEMAG.  This node is used by B:X4:X1:30.
WARNING: Less than two connections to node X4:X1:N007.  This node is used by V:X4:X1:1.
WARNING: Less than two connections to node X4:X1:CCM_TEST_2.  This node is used by B:X4:X1:22.
WARNING: Less than two connections to node X4:X1:N008.  This node is used by V:X4:X1:2.
Direct Newton iteration failed to find .op point.  (Use ".option noopiter" to skip.)
Starting Gmin stepping
Gmin = 10
vernier = 0.5
Gmin = 1.67772
vernier = 0.25
vernier = 0.125
vernier = 0.0625
vernier = 0.03125
Gmin = 1.60185
vernier = 0.015625
vernier = 0.0078125
vernier = 0.00390625
vernier = 0.00195313
Gmin = 1.58788
vernier = 0.000976563
vernier = 0.000488281
Gmin = 0
Gmin stepping failed

Starting source stepping with srcstepmethod=0
Source Step = 3.0303%
Source Step = 33.3333%
Source Step = 63.6364%
Source Step = 93.9394%
Source stepping succeeded in finding the operating point.

Ignoring empty pin current: Ix(x1:vc)
Ignoring empty pin current: Ix(x4:x1:v_mag)
Ignoring empty pin current: Ix(x4:x1:v_demag)
Ignoring empty pin current: Ix(x1:vc)
Ignoring empty pin current: Ix(x4:x1:v_mag)
Ignoring empty pin current: Ix(x4:x1:v_demag)

Date: Sun May 26 16:19:23 2024
Total elapsed time: 14.206 seconds.

tnom = 27
temp = 27
method = Gear
totiter = 713902
traniter = 712157
tranpoints = 266567
accept = 217453
rejected = 49114
matrix size = 147
fillins = 159
solver = Alternate
Thread vector: 11.5/5.7[4] 2.1/1.1[4] 4.2/1.8[4] 1.2/1.5[1]  2592/500
Matrix Compiler1:     705 opcodes  2.3/2.1/[1.9]
Matrix Compiler2:     922 opcodes
