Circuit: * C:\Users\mark_\OneDrive\Documents\Projects\LTspice\PWM-CM3\Buck_fig2-81.ASC

WARNING: Less than two connections to node X1:Q_BAR.  This node is used by A:X1:1.
WARNING: Less than two connections to node X1:ON_TIME.  This node is used by B:X1:7.
WARNING: Less than two connections to node X4:X1:DELTA_I_DEMAG.  This node is used by B:X4:X1:23.
WARNING: Less than two connections to node X4:X1:I_MIN_DEMAG.  This node is used by B:X4:X1:30.
WARNING: Less than two connections to node X4:X1:N007.  This node is used by V:X4:X1:1.
WARNING: Less than two connections to node X4:X1:CCM_TEST_2.  This node is used by B:X4:X1:22.
WARNING: Less than two connections to node X4:X1:N008.  This node is used by V:X4:X1:2.
Direct Newton iteration failed to find .op point.  (Use ".option noopiter" to skip.)
Starting Gmin stepping
Gmin = 10
Gmin = 1.07374
Gmin = 0.115292
Gmin = 0.0123794
Gmin = 0.00132923
Gmin = 0.000142725
Gmin = 1.5325e-005
Gmin = 1.6455e-006
Gmin = 1.76685e-007
Gmin = 1.89714e-008
Gmin = 2.03704e-009
Gmin = 2.18725e-010
Gmin = 2.34854e-011
Gmin = 2.52173e-012
Gmin = 2.70769e-013
Gmin = 0
Gmin stepping succeeded in finding the operating point.

Ignoring empty pin current: Ix(x1:vc)
Ignoring empty pin current: Ix(x4:x1:v_mag)
Ignoring empty pin current: Ix(x4:x1:v_demag)
Ignoring empty pin current: Ix(x1:vc)
Ignoring empty pin current: Ix(x4:x1:v_mag)
Ignoring empty pin current: Ix(x4:x1:v_demag)

Date: Sun May 26 15:42:44 2024
Total elapsed time: 14.591 seconds.

tnom = 27
temp = 27
method = Gear
totiter = 650028
traniter = 649596
tranpoints = 231490
accept = 186860
rejected = 44630
matrix size = 143
fillins = 80
solver = Alternate
Thread vector: 11.2/6.2[4] 1.7/1.1[4] 3.7/2.3[3] 1.0/1.7[1]  2592/500
Matrix Compiler1: 9.60 KB object code size  2.1/1.4/[1.1]
Matrix Compiler2: 10.60 KB object code size  1.1/2.2/[1.1]

