Circuit: * C:\Users\mark_\OneDrive\Documents\Projects\LTspice\PWM-CM3\BuckBoost_negOutput_AC.ASC

C2: both pins shorted together -- ignoring.
WARNING: Less than two connections to node X1:X1:DELTA_I_DEMAG.  This node is used by B:X1:X1:23.
WARNING: Less than two connections to node X1:X1:I_MIN_DEMAG.  This node is used by B:X1:X1:30.
WARNING: Less than two connections to node X1:X1:N007.  This node is used by V:X1:X1:1.
WARNING: Less than two connections to node X1:X1:CCM_TEST_2.  This node is used by B:X1:X1:22.
WARNING: Less than two connections to node X1:X1:N008.  This node is used by V:X1:X1:2.
Direct Newton iteration failed to find .op point.  (Use ".option noopiter" to skip.)
Starting Gmin stepping
Gmin = 10
Gmin = 1.07374
Gmin = 0.115292
Gmin = 0.0123794
Gmin = 0.00132923
Gmin = 0.000142725
Gmin = 1.5325e-005
Gmin = 1.6455e-006
Gmin = 1.76685e-007
Gmin = 1.89714e-008
Gmin = 2.03704e-009
Gmin = 2.18725e-010
Gmin = 2.34854e-011
Gmin = 2.52173e-012
Gmin = 2.70769e-013
Gmin = 0
Gmin stepping succeeded in finding the operating point.

Ignoring empty pin current: Ix(x1:x1:v_mag)
Ignoring empty pin current: Ix(x1:x1:v_demag)
Ignoring empty pin current: Ix(x1:x1:v_mag)
Ignoring empty pin current: Ix(x1:x1:v_demag)
.step vout=5
.step vout=7

Date: Sat May 25 00:14:16 2024
Total elapsed time: 0.180 seconds.

tnom = 27
temp = 27
method = Gear
totiter = 26
traniter = 0
tranpoints = 0
accept = 0
rejected = 0
matrix size = 88
fillins = 126
Matrix Compiler1:     539 opcodes
Matrix Compiler2:     584 opcodes
